12
Properties=species:S:1:pos:R:3 pbc="F F F"
F       -2.45480000      -0.83750000      -0.00070000
O       -1.60470000       1.74850000      -0.00040000
O        2.81160000       0.35710000      -0.00120000
N        0.61580000       1.07740000       0.00100000
N        1.12630000      -1.21390000       0.00020000
C       -0.75790000       0.86120000       0.00020000
C        1.60930000       0.08960000       0.00030000
C       -1.13770000      -0.56460000       0.00020000
C       -0.20790000      -1.51780000       0.00030000
H        0.93010000       2.04370000       0.00100000
H        1.78820000      -1.98420000      -0.00030000
H       -0.45490000      -2.57180000      -0.00010000
