55
Properties=species:S:1:pos:R:3 pbc="F F F"
O       -2.07830000      -0.58400000      -1.67530000
O       -1.47440000      -1.83670000       0.87620000
O        0.20870000      -0.37400000       0.19660000
O       -1.40260000      -1.86350000      -1.48260000
O        2.03160000       0.92890000      -0.42180000
O        2.59190000      -0.13720000       1.54500000
O        7.63950000      -0.88520000       0.88590000
O        6.94170000       0.27050000      -0.94160000
C       -2.11950000       0.15170000      -0.42410000
C       -3.62130000       0.10360000       0.00160000
C       -1.67740000       1.59720000      -0.78310000
C       -3.96810000       1.15330000       1.09070000
C       -1.15550000      -0.46160000       0.62430000
C       -2.04700000       2.60350000       0.31860000
C       -0.16540000       1.61770000      -1.13320000
C       -4.10300000      -1.30380000       0.42580000
C       -3.53040000       2.55340000       0.65150000
C       -1.94640000      -2.47930000      -0.31150000
C       -3.48640000      -2.48430000      -0.33130000
C        0.66290000       0.95730000      -0.02080000
C       -5.46360000       1.18420000       1.42930000
C        0.35320000       3.01770000      -1.47540000
C       -1.41290000      -3.90990000      -0.29580000
C        2.89750000       0.34700000       0.46420000
C        4.29750000       0.40170000      -0.10880000
C        5.32980000      -0.29980000       0.76570000
C        6.69770000      -0.26860000       0.13000000
H       -4.20770000       0.35580000      -0.89600000
H       -2.21380000       1.90070000      -1.69470000
H       -3.42880000       0.89980000       2.01290000
H       -1.23380000       0.05260000       1.58800000
H       -1.80990000       3.62330000      -0.00460000
H       -1.46900000       2.42110000       1.23100000
H       -0.03580000       1.01400000      -2.04330000
H       -5.19240000      -1.36220000       0.30790000
H       -3.91270000      -1.44670000       1.49810000
H       -3.73960000       3.27760000       1.44830000
H       -4.11140000       2.87160000      -0.22380000
H       -3.86180000      -3.39290000       0.15710000
H       -3.85900000      -2.50760000      -1.36260000
H        0.59290000       1.52990000       0.91250000
H       -5.68440000       1.98770000       2.14060000
H       -6.06980000       1.35130000       0.53260000
H       -5.78920000       0.24860000       1.89380000
H        1.35180000       2.96370000      -1.92220000
H       -0.30330000       3.50980000      -2.20060000
H        0.42600000       3.65250000      -0.58660000
H       -1.73520000      -4.46480000      -1.18330000
H       -0.31630000      -3.90840000      -0.29510000
H       -1.73330000      -4.44820000       0.60260000
H        4.57080000       1.45610000      -0.23440000
H        4.27310000      -0.06960000      -1.09880000
H        5.04400000      -1.34660000       0.91710000
H        5.38920000       0.19200000       1.74290000
H        8.52590000      -0.84970000       0.46740000
