52
Properties=species:S:1:pos:R:3 pbc="F F F"
Cl      -6.10230000       3.85820000       0.71110000
O        5.70200000       0.54660000       0.13810000
O        9.05350000      -0.67110000      -0.20410000
O        8.22590000       1.06550000       1.01530000
N       -0.71640000      -0.01140000      -0.10120000
N        2.05730000       0.76150000      -0.36140000
C       -0.33770000       1.36320000      -0.45050000
C        0.29710000      -0.95920000      -0.58050000
C        1.04330000       1.70920000       0.11710000
C        1.67850000      -0.61370000      -0.01410000
C       -2.03290000      -0.34090000      -0.64350000
C        3.37320000       1.09080000       0.18290000
C       -3.06390000       0.72400000      -0.29960000
C       -2.50040000      -1.73360000      -0.24710000
C        4.44010000       0.18060000      -0.40460000
C       -3.78800000       0.59940000       0.86850000
C       -3.24480000       1.78240000      -1.16670000
C       -3.33130000      -2.42740000      -1.10320000
C       -2.07920000      -2.26170000       0.95640000
C       -4.73380000       1.57510000       1.18320000
C       -4.19060000       2.75830000      -0.85200000
C       -3.75970000      -3.70430000      -0.74010000
C       -2.50770000      -3.53860000       1.31940000
C       -4.93510000       2.65460000       0.32310000
C       -3.34790000      -4.25980000       0.47110000
C        6.74330000      -0.28390000      -0.35750000
C        8.05750000       0.13620000       0.24000000
H       -1.00550000       2.10060000       0.00490000
H       -0.32960000       1.51540000      -1.53810000
H        0.09580000      -1.99510000      -0.29460000
H        0.34730000      -0.94450000      -1.67890000
H        1.30430000       2.72480000      -0.20500000
H        1.00130000       1.71500000       1.21500000
H        1.68310000      -0.76410000       1.07390000
H        2.36210000      -1.34450000      -0.45540000
H       -1.94690000      -0.35710000      -1.74240000
H        3.63510000       2.12830000      -0.06250000
H        3.38960000       1.02620000       1.27920000
H        4.27610000      -0.86820000      -0.14310000
H        4.46900000       0.27750000      -1.49670000
H       -3.64890000      -0.20750000       1.57770000
H       -2.68470000       1.86890000      -2.09280000
H       -3.65850000      -2.00260000      -2.04740000
H       -1.44840000      -1.71810000       1.65310000
H       -5.30340000       1.48450000       2.10460000
H       -4.33910000       3.59210000      -1.53340000
H       -4.41470000      -4.26560000      -1.40010000
H       -2.19250000      -3.96900000       2.26550000
H       -3.68270000      -5.25340000       0.75460000
H        6.80760000      -0.18330000      -1.44610000
H        6.55030000      -1.32420000      -0.07440000
H        9.92400000      -0.41900000       0.17150000
