43
Properties=species:S:1:pos:R:3 pbc="F F F"
N       -4.02330000      -0.22930000       0.22790000
C       -1.25810000      -0.09370000      -0.58970000
C       -2.15130000       1.11160000      -0.70210000
C       -1.99470000      -1.40540000      -0.58970000
C       -3.28160000       1.03890000       0.33060000
C       -3.13090000      -1.38160000       0.43900000
C        0.07340000      -0.00570000      -0.46750000
C        0.85950000      -1.25580000      -0.36390000
C        0.68820000       1.33670000      -0.35970000
C       -5.12680000      -0.25490000       1.18770000
C        1.72030000      -1.48640000       0.72630000
C        1.51150000       1.67470000       0.73140000
C        0.77050000      -2.21640000      -1.38900000
C        0.47340000       2.28030000      -1.38180000
C        1.86580000      -0.56350000       1.86540000
C        1.77730000       0.77560000       1.86780000
C        2.43960000      -2.69360000       0.78080000
C        2.06630000       2.96570000       0.78970000
C        1.50310000      -3.40070000      -1.32470000
C        1.04460000       3.55020000      -1.31390000
C        2.33490000      -3.64090000      -0.23820000
C        1.83820000       3.89410000      -0.22630000
H       -1.69220000       2.08140000      -0.52120000
H       -2.57770000       1.14160000      -1.71330000
H       -2.40900000      -1.57860000      -1.59150000
H       -1.40470000      -2.28500000      -0.33140000
H       -2.87050000       1.16760000       1.34140000
H       -3.96470000       1.87800000       0.14840000
H       -3.70320000      -2.31200000       0.33630000
H       -2.71210000      -1.36770000       1.45470000
H       -5.70870000      -1.17710000       1.08030000
H       -5.81770000       0.57480000       1.00170000
H       -4.77640000      -0.18660000       2.22400000
H        0.14920000      -2.04430000      -2.26590000
H       -0.10920000       2.02930000      -2.26630000
H        2.10200000      -1.04300000       2.81470000
H        1.94870000       1.27880000       2.81860000
H        3.09830000      -2.90810000       1.62040000
H        2.69150000       3.26220000       1.63000000
H        1.42640000      -4.13130000      -2.12440000
H        0.87510000       4.26590000      -2.11270000
H        2.90470000      -4.56380000      -0.18200000
H        2.28260000       4.88330000      -0.16770000
