57
Properties=species:S:1:pos:R:3 pbc="F F F"
F        5.18980000       1.00380000       2.64840000
F        6.34340000       1.33350000      -1.93300000
O       -4.32730000      -0.63960000      -0.21840000
O       -4.65040000       1.27590000       1.01140000
O       -0.09370000      -0.94950000       1.75890000
O        1.72170000      -1.40500000      -1.76390000
N       -1.77600000      -0.75250000       0.17270000
N        1.20440000      -2.70590000       0.08870000
C       -5.74020000      -0.74210000      -0.42380000
C       -2.40340000       0.42270000       0.73060000
C       -0.22710000      -2.59680000      -0.01380000
C       -1.76050000       1.68490000       0.20560000
C       -3.91220000       0.42590000       0.52370000
C       -6.21830000       0.51430000      -1.15010000
C       -5.99240000      -1.98420000      -1.27570000
C       -6.42110000      -0.87680000       0.93750000
C       -0.65880000      -1.34720000       0.74220000
C       -0.91740000      -3.83330000       0.54050000
C       -1.31730000       1.74420000      -1.11580000
C       -1.61040000       2.79130000       1.04180000
C        2.07190000      -2.09210000      -0.80780000
C        3.52250000      -2.36790000      -0.46180000
C       -0.72380000       2.90960000      -1.60080000
C       -1.01700000       3.95670000       0.55670000
C        4.31470000      -1.12030000      -0.17280000
C       -0.57370000       4.01580000      -0.76460000
C        4.97560000      -0.45830000      -1.20730000
C        4.38670000      -0.62620000       1.12970000
C        5.12010000       0.52970000       1.39770000
C        5.70870000       0.69770000      -0.93960000
C        5.78110000       1.19180000       0.36290000
H       -2.25200000       0.36460000       1.81680000
H       -0.48540000      -2.48590000      -1.07380000
H       -2.17960000      -1.15510000      -0.66850000
H       -6.30720000       1.40020000      -0.51630000
H       -7.21720000       0.35430000      -1.57330000
H       -5.54270000       0.77250000      -1.97400000
H       -5.60520000      -2.88100000      -0.77830000
H       -5.46590000      -1.91070000      -2.23430000
H       -7.05840000      -2.13220000      -1.47630000
H       -5.89590000      -1.60410000       1.56750000
H       -6.48670000       0.05330000       1.50750000
H       -7.45450000      -1.22270000       0.81570000
H        1.58390000      -3.19340000       0.89500000
H       -0.68880000      -3.97370000       1.60320000
H       -2.00530000      -3.75040000       0.44520000
H       -0.59300000      -4.73350000       0.00790000
H       -1.43450000       0.90320000      -1.79360000
H       -1.95290000       2.75870000       2.07260000
H        3.60840000      -3.05740000       0.38690000
H        3.96350000      -2.90340000      -1.31250000
H       -0.38150000       2.95700000      -2.63040000
H       -0.90060000       4.81840000       1.20750000
H       -0.11240000       4.92360000      -1.14250000
H        4.92570000      -0.83180000      -2.22650000
H        3.87410000      -1.13200000       1.94360000
H        6.35200000       2.09170000       0.57140000
