59
Properties=species:S:1:pos:R:3 pbc="F F F"
Cl       6.74000000      -0.14130000      -2.72420000
S        1.94100000      -1.58070000       0.26770000
O      -11.43270000      -1.43930000       0.57530000
O        4.89070000      -2.12610000       0.18510000
N       -7.93700000      -0.76410000      -0.37830000
N       -5.23610000       0.13020000      -0.12300000
N       -3.74810000       2.00680000      -0.19430000
N       -1.37020000       1.66950000       0.00240000
N       -0.50390000      -0.53250000       0.26770000
N        1.34740000       0.93120000       0.12440000
N        5.57750000       0.09200000       0.05980000
C       -6.82360000      -1.64750000      -0.74550000
C       -7.54270000       0.09550000       0.74480000
C       -5.59370000      -0.83810000      -1.16410000
C       -6.33760000       0.96350000       0.37510000
C       -9.12180000      -1.54840000      -0.03240000
C       -3.94120000       0.65910000      -0.08220000
C      -10.30220000      -0.63640000       0.26160000
C       -2.86480000      -0.21590000       0.07440000
C       -1.60440000       0.34510000       0.10950000
C       -2.47100000       2.43110000      -0.14490000
C       -2.25240000       3.90110000      -0.26660000
C        0.83490000      -0.27290000       0.21490000
C        3.23120000      -0.45600000       0.15950000
C        6.98750000      -0.04020000      -0.00500000
C        2.72400000       0.82480000       0.09310000
C        7.71180000      -0.05270000       1.17710000
C        4.58080000      -0.91050000       0.15060000
C        7.61640000      -0.15380000      -1.23480000
C        9.09970000      -0.18210000       1.12780000
C        7.04990000       0.06890000       2.51180000
C        9.00430000      -0.28320000      -1.28420000
C        9.74600000      -0.29730000      -0.10300000
H       -7.11410000      -2.28740000      -1.58770000
H       -6.56010000      -2.30830000       0.09150000
H       -7.30620000      -0.50620000       1.63260000
H       -8.32890000       0.80190000       1.02310000
H       -5.79490000      -0.30200000      -2.10060000
H       -4.77430000      -1.53820000      -1.36310000
H       -6.61870000       1.69740000      -0.39130000
H       -6.02550000       1.51780000       1.26940000
H       -8.93530000      -2.20910000       0.82500000
H       -9.39630000      -2.20680000      -0.86690000
H      -10.15660000       0.01770000       1.12330000
H      -10.55480000      -0.01890000      -0.60640000
H       -3.01450000      -1.28560000       0.17710000
H      -11.21310000      -1.96140000       1.36580000
H       -0.77820000      -1.50560000       0.37930000
H       -2.95270000       4.44400000       0.37550000
H       -2.40900000       4.21420000      -1.30310000
H       -1.23530000       4.17600000       0.02980000
H        3.29960000       1.73760000       0.01950000
H        5.27390000       1.05980000      -0.00670000
H        9.69320000      -0.19580000       2.03800000
H        7.78070000       0.12810000       3.32570000
H        6.41440000      -0.80180000       2.70330000
H        6.44180000       0.97860000       2.55910000
H        9.52370000      -0.37410000      -2.23490000
H       10.82670000      -0.39830000      -0.14150000
