57
Properties=species:S:1:pos:R:3 pbc="F F F"
F        1.32870000       0.09060000       1.27210000
O       -2.97850000      -0.21320000       1.82530000
O        0.28670000       2.12970000      -1.49840000
O       -5.28940000      -0.05980000      -0.49830000
O       -5.61130000       2.37610000       0.75200000
O        6.19230000       0.10110000       1.64370000
C       -1.81200000       0.15720000      -0.29830000
C       -0.90030000      -1.06290000      -0.04260000
C        0.49200000      -0.93080000      -0.67940000
C        1.20880000       0.33140000      -0.08790000
C       -3.10450000      -0.34160000       0.41320000
C       -1.77410000      -2.25710000      -0.42540000
C       -1.12400000       1.38610000       0.33110000
C       -3.21270000      -1.83330000      -0.02590000
C        0.31840000       1.60680000      -0.17960000
C        2.68760000       0.47850000      -0.62390000
C        1.31750000      -2.20690000      -0.43110000
C       -2.09760000       0.40610000      -1.80550000
C        2.74700000      -2.07920000      -0.94390000
C        3.40410000      -0.85230000      -0.36540000
C       -4.32860000       0.45650000       0.07040000
C       -3.80610000      -2.77670000       1.01640000
C        2.78270000       0.78490000      -2.13630000
C        3.39100000       1.62760000       0.08450000
C        4.52440000      -0.96710000       0.36500000
C       -4.30730000       1.91850000       0.46260000
C        4.50580000       1.51960000       0.81380000
C        5.15920000       0.21020000       0.99190000
H       -0.73470000      -1.15220000       1.04360000
H        0.38660000      -0.81870000      -1.76300000
H       -1.72420000      -2.44880000      -1.50380000
H       -1.44930000      -3.17050000       0.08410000
H       -1.04430000       1.27960000       1.41790000
H       -1.69890000       2.29470000       0.13010000
H       -3.82740000      -1.92860000      -0.93040000
H        0.74370000       2.38290000       0.46890000
H        0.84410000      -3.06260000      -0.92680000
H        1.33620000      -2.43640000       0.64270000
H       -2.71850000      -0.37630000      -2.25300000
H       -2.62520000       1.35400000      -1.95440000
H       -1.19060000       0.45240000      -2.41120000
H        2.75150000      -2.02200000      -2.03850000
H        3.29940000      -2.99030000      -0.68360000
H       -4.81040000      -2.45180000       1.30610000
H       -3.88390000      -3.79250000       0.61430000
H       -3.18660000      -2.82280000       1.91810000
H        2.11560000       0.15910000      -2.73630000
H        2.55190000       1.82880000      -2.37130000
H        3.80150000       0.61320000      -2.50900000
H       -2.75330000       0.68950000       2.08730000
H        2.96840000       2.62330000      -0.03050000
H        0.84910000       2.92260000      -1.51490000
H        4.99900000      -1.92740000       0.53650000
H       -3.93170000       2.50070000      -0.38230000
H       -3.69820000       2.13690000       1.33680000
H        4.96070000       2.38560000       1.28040000
H       -5.91500000       1.90910000       1.54910000
