56
Properties=species:S:1:pos:R:3 pbc="F F F"
O       -0.33440000       2.53180000      -1.76200000
O       -2.49760000       0.78780000       2.17070000
O       -0.06080000       0.62420000       3.23210000
O       -1.26770000      -1.88530000       1.91030000
O        2.01460000      -1.17940000       2.17730000
O       -2.97200000      -0.83540000      -2.42590000
O        3.81590000      -2.46330000       0.75290000
O       -3.20410000      -3.46060000      -0.90840000
N       -4.03340000       1.14150000      -0.27590000
N       -0.91410000      -3.50060000      -0.61530000
C       -1.55040000       1.38890000       0.01910000
C        0.96370000       1.83040000       0.13470000
C       -0.21560000       1.48630000      -0.79540000
C       -1.46930000       0.43330000       1.24310000
C       -2.72200000       0.99020000      -0.90400000
C        2.31600000       2.09460000      -0.58280000
C        1.05580000       0.73540000       1.14970000
C       -0.14890000       0.61730000       2.00790000
C       -1.63480000      -1.03390000       0.87990000
C        3.15460000       0.83960000      -0.75860000
C       -2.60570000      -0.46500000      -1.30970000
C        2.02220000      -0.19220000       1.21260000
C       -2.10110000      -1.46310000      -0.31130000
C        3.04630000      -0.23970000       0.14530000
C        3.14520000       3.12550000       0.20380000
C        4.08640000       0.78460000      -1.81010000
C       -4.21520000       2.51070000       0.20560000
C       -5.09530000       0.78570000      -1.21660000
C        3.87280000      -1.35940000      -0.04990000
C       -2.14750000      -2.89840000      -0.64190000
C        4.90190000      -0.33050000      -1.97830000
C        4.79450000      -1.40120000      -1.09910000
H       -1.71660000       2.40830000       0.38910000
H        0.69750000       2.76520000       0.65080000
H       -0.01690000       0.55730000      -1.34220000
H       -2.66920000       1.59430000      -1.82020000
H        2.11880000       2.52450000      -1.57260000
H        3.39040000       2.76790000       1.21030000
H        2.59620000       4.06810000       0.30370000
H        4.08890000       3.34910000      -0.30640000
H       -0.50400000       3.36320000      -1.28720000
H       -2.52840000       0.12310000       2.87910000
H        4.18290000       1.61880000      -2.50090000
H       -3.60570000       2.74770000       1.08070000
H       -4.02120000       3.25420000      -0.57650000
H       -5.24730000       2.65800000       0.54750000
H       -5.01020000       1.31950000      -2.17030000
H       -5.13960000      -0.29130000      -1.40570000
H       -6.07740000       1.02840000      -0.79190000
H       -1.17620000      -1.38030000       2.73420000
H        1.30520000      -1.01020000       2.81810000
H        5.61840000      -0.36320000      -2.79340000
H        5.43400000      -2.26790000      -1.24660000
H       -0.05980000      -2.99690000      -0.39710000
H       -0.81400000      -4.48850000      -0.82420000
H        4.46240000      -3.12340000       0.44990000
