9
Properties=species:S:1:pos:R:3 pbc="F F F"
O        1.88790000      -0.00950000      -0.00270000
O       -0.48550000      -1.30440000      -0.00030000
N        0.67610000       0.69460000       0.00260000
N       -1.61350000       0.69390000      -0.00290000
C       -0.46490000      -0.07450000       0.00330000
H        0.71730000       1.68970000       0.18780000
H       -1.57330000       1.70750000      -0.00260000
H       -2.53340000       0.26600000      -0.00670000
H        2.08350000      -0.00760000      -0.95500000
