49
Properties=species:S:1:pos:R:3 pbc="F F F"
S       -4.98820000       1.18830000       2.53360000
S       -2.01730000      -0.43330000      -2.61340000
S        3.59980000      -0.07740000      -1.91050000
O       -3.07890000      -1.20500000       2.33190000
O       -0.43650000       1.92250000      -0.80630000
N       -2.50330000      -0.81890000       0.07250000
N       -3.50100000       1.04460000      -1.07350000
N        1.11600000       0.72220000      -2.10670000
N        2.33860000       1.26660000      -0.10630000
C       -5.04070000       2.52540000       0.18750000
C       -4.14390000       1.32890000       0.09350000
C       -4.06300000       0.61180000       1.21240000
C       -5.87040000       2.38540000       1.46980000
C       -3.18980000      -0.57290000       1.28430000
C       -2.72710000       0.00020000      -1.05900000
C       -1.55680000      -1.89960000       0.07710000
C       -1.97740000      -3.17960000      -0.25920000
C       -0.23370000      -1.64990000       0.41710000
C       -1.11040000       1.09150000      -2.93440000
C        4.46060000       0.32130000      -0.47080000
C        3.61870000       1.04430000       0.37990000
C       -1.05850000      -4.22900000      -0.25520000
C        0.68520000      -2.69940000       0.42090000
C        6.25980000       0.45560000       1.11920000
C       -0.11090000       1.30690000      -1.81790000
C        2.24190000       0.72390000      -1.27890000
C        5.78540000       0.01630000      -0.11950000
C        4.12330000       1.47620000       1.62570000
C        0.27280000      -3.98890000       0.08480000
C        5.44130000       1.17620000       1.98200000
C        7.66430000       0.14600000       1.51920000
H       -4.43360000       3.43790000       0.22340000
H       -5.70340000       2.60210000      -0.68150000
H       -5.99320000       3.34480000       1.98070000
H       -6.86290000       1.98170000       1.24320000
H       -3.01260000      -3.37580000      -0.52470000
H        0.09360000      -0.65110000       0.69060000
H       -1.78470000       1.95180000      -2.99070000
H       -0.60200000       1.01330000      -3.90050000
H       -1.37950000      -5.23300000      -0.51690000
H        1.72150000      -2.51220000       0.68720000
H        6.42120000      -0.54850000      -0.79530000
H        3.49210000       2.03910000       2.30750000
H        0.98830000      -4.80580000       0.08800000
H        1.23810000       0.23390000      -2.99000000
H        5.81510000       1.51390000       2.94560000
H        8.07500000       0.93250000       2.16160000
H        7.69930000      -0.80420000       2.06130000
H        8.31860000       0.07460000       0.64370000
