23
Properties=species:S:1:pos:R:3 pbc="F F F"
Cl      -4.83890000      -0.75200000       0.29060000
O        1.26090000       1.76930000      -0.14430000
N        1.67070000      -0.48130000      -0.51400000
N        5.24460000      -0.41430000       0.55030000
N       -0.89850000      -0.97550000      -0.24700000
C        3.11730000      -0.35960000      -0.65890000
C        3.79700000      -0.51830000       0.69780000
C        0.86820000       0.61200000      -0.26670000
C       -0.58050000       0.31770000      -0.11870000
C       -1.44630000       1.34910000       0.12870000
C       -2.79070000       1.01870000       0.25920000
C       -3.19000000      -0.30760000       0.13700000
C       -2.21380000      -1.25820000      -0.11410000
H        3.35330000       0.61310000      -1.10520000
H        3.43550000      -1.14550000      -1.35240000
H        3.54140000      -1.48830000       1.13930000
H        3.44910000       0.25580000       1.39070000
H        1.25790000      -1.40680000      -0.58630000
H       -1.13320000       2.38210000       0.22340000
H        5.58040000      -1.15190000      -0.06780000
H        5.68830000      -0.57470000       1.45370000
H       -3.51620000       1.80370000       0.45570000
H       -2.46100000      -2.31020000      -0.22030000
