55
Properties=species:S:1:pos:R:3 pbc="F F F"
O        6.69480000      -0.36400000      -2.12050000
O        4.07130000       2.27520000       1.27950000
O        4.54470000      -0.12710000      -2.80660000
O        4.21950000      -4.43540000       1.02090000
O        5.71290000      -3.20770000       2.20850000
N       -2.20370000       3.00430000       0.41380000
N        3.72910000       0.69320000      -0.38150000
N       -3.90190000       0.76910000       0.17600000
N       -3.69400000      -0.57360000      -2.23470000
N       -4.56860000      -2.48460000      -1.26270000
N       -5.19410000      -2.51500000       1.05210000
N       -4.91530000      -0.56930000       2.36290000
N       -5.45500000      -4.42290000      -0.28000000
C        5.09240000       0.23300000      -0.46110000
C        5.38880000      -0.91180000       0.51530000
C       -0.83190000       2.67760000       0.43460000
C        4.59060000      -2.20290000       0.29350000
C       -2.98580000       2.81170000      -0.79140000
C        1.88210000       2.03370000       0.47470000
C        3.32750000       1.69110000       0.49580000
C       -0.22250000       2.15430000      -0.70570000
C       -0.08440000       2.87910000       1.59500000
C        5.37690000      -0.10940000      -1.90900000
C        1.13460000       1.83230000      -0.68570000
C        1.27250000       2.55710000       1.61490000
C       -3.41540000       1.37640000      -0.91730000
C       -2.84640000       3.55000000       1.59270000
C        4.91060000      -3.29660000       1.28950000
C       -3.31290000       0.71220000      -2.10870000
C       -4.28260000      -0.51650000       0.04830000
C       -4.18340000      -1.20670000      -1.16180000
C       -4.79650000      -1.23140000       1.11330000
C       -5.05380000      -3.07530000      -0.15460000
H        5.73880000       1.08330000      -0.20880000
H        5.20590000      -0.56090000       1.53960000
H        6.45860000      -1.15420000       0.46730000
H        4.80070000      -2.59560000      -0.70750000
H        3.51850000      -1.99150000       0.37070000
H        3.04310000       0.19810000      -0.94190000
H       -3.90310000       3.41440000      -0.74910000
H       -2.46890000       3.17950000      -1.68590000
H       -0.73990000       1.98510000      -1.64210000
H       -0.51210000       3.28330000       2.50710000
H        1.57780000       1.45820000      -1.60390000
H        1.83760000       2.71700000       2.52950000
H       -3.91410000       3.73040000       1.42350000
H       -2.40560000       4.51280000       1.87370000
H       -2.78150000       2.85520000       2.43760000
H       -2.92630000       1.17490000      -3.00850000
H        6.88080000      -0.56960000      -3.06140000
H        4.43730000      -5.15280000       1.65350000
H       -5.28430000      -1.10830000       3.13630000
H       -4.27750000       0.19100000       2.56470000
H       -5.82500000      -4.90840000       0.52540000
H       -5.36630000      -4.88690000      -1.17350000
