65
Properties=species:S:1:pos:R:3 pbc="F F F"
O        5.07490000       2.92780000       0.60300000
O        0.67070000       4.20980000      -0.41190000
O        3.38020000      -3.19840000       2.21940000
O       -8.01760000      -0.26650000      -0.34600000
O       -6.83090000      -0.76960000       1.56690000
C        1.65450000       1.99220000      -0.32450000
C        3.03050000       1.67040000       0.27830000
C        3.92630000       2.81170000      -0.22170000
C        3.05570000       4.06080000      -0.10560000
C        0.49840000       1.40230000       0.46380000
C        1.66660000       3.50700000      -0.29160000
C        3.53160000       0.31940000      -0.12070000
C       -0.81200000       1.47780000      -0.32010000
C       -1.96710000       0.85170000       0.46320000
C        3.84820000      -0.64730000       0.75310000
C        3.45890000      -3.18720000       0.79080000
C        4.35910000      -2.00500000       0.35030000
C       -3.27100000       0.89800000      -0.33620000
C        2.03460000      -2.96480000       0.22360000
C        4.03770000      -4.53560000       0.34880000
C       -4.41920000       0.24070000       0.43610000
C        1.95440000      -2.89040000      -1.30710000
C        0.52810000      -2.58490000      -1.76980000
C       -5.73020000       0.24660000      -0.34980000
C        0.44470000      -2.47670000      -3.28410000
C       -6.89200000      -0.33530000       0.42490000
C       -9.21540000      -0.75450000       0.26710000
H        1.61740000       1.68530000      -1.37800000
H        2.97600000       1.72870000       1.37600000
H        4.24580000       2.65220000      -1.25910000
H        3.13700000       4.53210000       0.87820000
H        3.29360000       4.78420000      -0.88930000
H        0.38140000       1.92410000       1.42190000
H        0.70490000       0.35070000       0.69550000
H        3.64310000       0.12760000      -1.18540000
H       -1.06950000       2.51480000      -0.55600000
H       -0.69580000       0.95160000      -1.27570000
H       -1.72300000      -0.19000000       0.70510000
H       -2.09870000       1.38280000       1.41360000
H        3.74640000      -0.45830000       1.81890000
H        5.33930000      -2.11840000       0.83380000
H        4.55840000      -2.04660000      -0.72680000
H        5.57090000       3.70830000       0.30220000
H       -3.13400000       0.38170000      -1.29410000
H       -3.52920000       1.93940000      -0.56290000
H        1.58630000      -2.06800000       0.66980000
H        1.39210000      -3.78550000       0.57250000
H        4.19530000      -4.58490000      -0.73240000
H        5.00110000      -4.72060000       0.83790000
H        3.37680000      -5.35780000       0.64530000
H       -4.56200000       0.76430000       1.38990000
H       -4.15190000      -0.79370000       0.68620000
H        2.61460000      -2.11340000      -1.70120000
H        2.27500000      -3.84170000      -1.74580000
H        4.28170000      -3.30180000       2.56910000
H       -0.15170000      -3.37280000      -1.42550000
H        0.18590000      -1.64320000      -1.32510000
H       -5.60740000      -0.33720000      -1.26900000
H       -5.98840000       1.27760000      -0.61760000
H       -0.58310000      -2.26040000      -3.59210000
H        0.75340000      -3.41190000      -3.76190000
H        1.08680000      -1.67170000      -3.65580000
H       -9.10830000      -1.81440000       0.51640000
H       -9.44920000      -0.16830000       1.16090000
H      -10.03360000      -0.64340000      -0.44950000
